*Heading
** Job name: Job-1 Model name: Model-1
** Generated by: Abaqus/CAE 2023
*Preprint, echo=NO, model=NO, history=NO, contact=NO
**
** PARTS
**
*Part, name=film
*Node
      1,         -7.5,           0.,          1.5
      2,          7.5,           0.,          1.5
      3,          7.5,           0.,         16.5
      4,         -7.5,           0.,         16.5
      5,           9.,           0.,          18.
      6,          -9.,           0.,          18.
      7,          -9.,           0.,           0.
      8,           9.,           0.,           0.
      9,          -7.,           0.,          1.5
     10,         -6.5,           0.,          1.5
     11,          -6.,           0.,          1.5
     12,         -5.5,           0.,          1.5
     13,          -5.,           0.,          1.5
     14,         -4.5,           0.,          1.5
     15,          -4.,           0.,          1.5
     16,         -3.5,           0.,          1.5
     17,          -3.,           0.,          1.5
     18,         -2.5,           0.,          1.5
     19,          -2.,           0.,          1.5
     20,         -1.5,           0.,          1.5
** ... 5704 like lines cut
*Element, type=C3D8RH
   1,  124,  265,    9,    1, 1555, 1696, 1440, 1432
   2,  265,  266,   10,    9, 1696, 1697, 1441, 1440
   3,  266,  267,   11,   10, 1697, 1698, 1442, 1441
   4,  267,  268,   12,   11, 1698, 1699, 1443, 1442
   5,  268,  269,   13,   12, 1699, 1700, 1444, 1443
   6,  269,  270,   14,   13, 1700, 1701, 1445, 1444
   7,  270,  271,   15,   14, 1701, 1702, 1446, 1445
   8,  271,  272,   16,   15, 1702, 1703, 1447, 1446
   9,  272,  273,   17,   16, 1703, 1704, 1448, 1447
  10,  273,  274,   18,   17, 1704, 1705, 1449, 1448
  11,  274,  275,   19,   18, 1705, 1706, 1450, 1449
  12,  275,  276,   20,   19, 1706, 1707, 1451, 1450
  13,  276,  277,   21,   20, 1707, 1708, 1452, 1451
  14,  277,  278,   22,   21, 1708, 1709, 1453, 1452
  15,  278,  279,   23,   22, 1709, 1710, 1454, 1453
  16,  279,  280,   24,   23, 1710, 1711, 1455, 1454
  17,  280,  281,   25,   24, 1711, 1712, 1456, 1455
  18,  281,  282,   26,   25, 1712, 1713, 1457, 1456
  19,  282,  283,   27,   26, 1713, 1714, 1458, 1457
  20,  283,  284,   28,   27, 1714, 1715, 1459, 1458
** ... 4054 like lines cut
*Nset, nset=Set-film, generate
    1,  5724,     1
*Elset, elset=Set-film, generate
    1,  4074,     1
*Elset, elset=_s_Surf-1_S2, internal, generate
 2717,  4074,     1
*Surface, type=ELEMENT, name=s_Surf-1
_s_Surf-1_S2, S2
** Section: pdms-section
*Solid Section, elset=Set-film, material=pdms
,
*End Part
**  
*Part, name=solid-object
*Node
      1,           0., 0.0900000036,         -1.5
      2,           0.,   1.84050536,   1.20454776
      3,           0.,   1.84050536,  -1.20454776
      4,           0.,  -1.39999998, -0.00999999978
      5,  0.610104978, 0.0900000036,  -1.37031817
      6,   1.11471725, 0.0900000036,  -1.00369596
      7,   1.42658472, 0.0900000036, -0.463525504
      8,   1.49178278, 0.0900000036,    0.1567927
      9,   1.29903805, 0.0900000036,         0.75
     10,  0.881677866, 0.0900000036,   1.21352553
     11,  0.311867535, 0.0900000036,   1.46722138
     12, -0.311867535, 0.0900000036,   1.46722138
     13, -0.881677866, 0.0900000036,   1.21352553
     14,  -1.29903805, 0.0900000036,         0.75
     15,  -1.49178278, 0.0900000036,    0.1567927
     16,  -1.42658472, 0.0900000036, -0.463525504
     17,  -1.11471725, 0.0900000036,  -1.00369596
     18, -0.610104978, 0.0900000036,  -1.37031817
     19,           0.,  0.663343489,   -1.3466022
     20,           0.,   1.24857545,   -1.2478261
** ... 186 like lines cut
*Element, type=R3D4
 1,  1, 18, 40, 19
 2, 18, 17, 41, 40
 3, 17, 16, 42, 41
 4, 16, 15, 43, 42
 5, 15, 14, 44, 43
 6, 14, 13, 45, 44
 7, 13, 12, 46, 45
 8, 12, 11, 47, 46
 9, 11, 10, 48, 47
10, 10,  9, 49, 48
11,  9,  8, 50, 49
12,  8,  7, 51, 50
13,  7,  6, 52, 51
14,  6,  5, 53, 52
15,  5,  1, 19, 53
16, 19, 40, 54, 20
17, 40, 41, 55, 54
18, 41, 42, 56, 55
19, 42, 43, 57, 56
20, 43, 44, 58, 57
** ... 179 like lines cut
*Element, type=R3D3
47, 90, 30, 29
78, 158, 150, 147
79,  37, 164,   4
80, 117, 114, 118
81, 202, 121, 131
82, 158, 152, 150
83, 153, 164, 191
84, 118, 114, 162
85,  34, 153, 181
86, 186, 164,  37
*Node
    207, 7.37572799e-17,   1.84050536,           0.
*Nset, nset=solid-object-RefPt_, internal
207, 
*Elset, elset=_m_Surf-1_SPOS, internal, generate
   1,  209,    1
*Surface, type=ELEMENT, name=m_Surf-1
_m_Surf-1_SPOS, SPOS
*Elset, elset=solid-object, generate
   1,  209,    1
*End Part
**  
**
** ASSEMBLY
**
*Assembly, name=Assembly
**  
*Instance, name=film-1, part=film
*End Instance
**  
*Instance, name=solid-object-1, part=solid-object
          0.,     2.901754,          13.
*End Instance
**  
*Nset, nset=Set-1, instance=film-1
    1,    2,    3,    4,    5,    6,    7,    8,    9,   10,   11,   12,   13,   14,   15,   16
   17,   18,   19,   20,   21,   22,   23,   24,   25,   26,   27,   28,   29,   30,   31,   32
   33,   34,   35,   36,   37,   38,   39,   40,   41,   42,   43,   44,   45,   46,   47,   48
   49,   50,   51,   52,   53,   54,   55,   56,   57,   58,   59,   60,   61,   62,   63,   64
   65,   66,   67,   68,   69,   70,   71,   72,   73,   74,   75,   76,   77,   78,   79,   80
   81,   82,   83,   84,   85,   86,   87,   88,   89,   90,   91,   92,   93,   94,   95,   96
   97,   98,   99,  100,  101,  102,  103,  104,  105,  106,  107,  108,  109,  110,  111,  112
  113,  114,  115,  116,  117,  118,  119,  120,  121,  122,  123,  124,  125,  126,  127,  128
  129,  130,  131,  132,  133,  134,  135,  136,  137,  138,  139,  140,  141,  142,  143,  144
  145,  146,  147,  148,  149,  150,  151,  152,  153,  154,  155,  156,  157,  158,  159,  160
  161,  162,  163,  164,  165,  166,  167,  168,  169,  170,  171,  172,  173,  174,  175,  176
  177,  178,  179,  180,  181,  182,  183,  184,  185,  186,  187,  188,  189,  190,  191,  192
  193,  194,  195,  196,  197,  198,  199,  200,  201,  202,  203,  204,  205,  206,  207,  208
  209,  210,  211,  212,  213,  214,  215,  216,  217,  218,  219,  220,  221,  222,  223,  224
  225,  226,  227,  228,  229,  230,  231,  232,  233,  234,  235,  236,  237,  238,  239,  240
  241,  242,  243,  244,  245,  246,  247,  248,  249,  250,  251,  252,  253,  254,  255,  256
  257,  258,  259,  260,  261,  262,  263,  264, 1106, 1107, 1108, 1109, 1110, 1111, 1112, 1113
 1114, 1115, 1116, 1117, 1118, 1119, 1120, 1121, 1122, 1123, 1124, 1125, 1126, 1127, 1128, 1129
 1130, 1131, 1132, 1133, 1134, 1135, 1136, 1137, 1138, 1139, 1140, 1141, 1142, 1143, 1144, 1145
 1146, 1147, 1148, 1149, 1150, 1151, 1152, 1153, 1154, 1155, 1156, 1157, 1158, 1159, 1160, 1161
** ... 17 like lines cut
*Elset, elset=Set-1, instance=film-1, generate
  901,  1358,     1
*Nset, nset=Set-2, instance=solid-object-1
  4, 34, 35, 36
*Elset, elset=Set-2, instance=solid-object-1
 46,
*Nset, nset=Set-contact, instance=film-1, generate
 4294,  5724,     1
*Elset, elset=Set-contact, instance=film-1, generate
 2717,  4074,     1
*Rigid Body, ref node=solid-object-1.solid-object-RefPt_, elset=solid-object-1.solid-object
*End Assembly
** 
** MATERIALS
** 
*Material, name=pdms
*Hyperelastic, n=2
 -0.697, 1.08,   0., 2.52,   0.,   0.,   0.
** 
** INTERACTION PROPERTIES
** 
*Surface Interaction, name=IntProp-1
1.,
*Surface Behavior, pressure-overclosure=HARD
** 
** INTERACTIONS
** 
** Interaction: Int-1
*Contact Pair, interaction=IntProp-1, type=SURFACE TO SURFACE
film-1.s_Surf-1, solid-object-1.m_Surf-1
** ----------------------------------------------------------------
** 
** STEP: Step-1
** 
*Step, name=Step-1, nlgeom=YES, inc=1000
*Static
0.01, 1., 1e-15, 1.
** 
** BOUNDARY CONDITIONS
** 
** Name: BC-1 Type: 对称/反对称/完全固定
*Boundary
Set-1, ENCASTRE
** Name: BC-2 Type: 位移/转角
*Boundary
Set-2, 1, 1
Set-2, 2, 2, -1.5
Set-2, 3, 3
Set-2, 4, 4
Set-2, 5, 5
Set-2, 6, 6
** 
** OUTPUT REQUESTS
** 
*Restart, write, frequency=0
** 
** FIELD OUTPUT: F-Output-1
** 
*Output, field, time interval=0.01
*Node Output
CF, RF, U
*Element Output, directions=YES
LE, PE, PEEQ, PEMAG, S
*Contact Output
CDISP, CFORCE, CSTRESS
** 
** HISTORY OUTPUT: H-Output-1
** 
*Output, history, variable=PRESELECT
*End Step
